14
butane-g.pdb
C         -1.87700       -0.06700        0.40000
C         -0.61200       -0.05000       -0.45400
C          0.61300        0.02100        0.45300
C          0.66800        1.38900        1.12700
H         -2.75200       -0.11800       -0.24800
H         -1.92200        0.84200        1.00000
H         -1.86000       -0.93600        1.05700
H         -0.62900        0.81900       -1.11100
H         -0.56800       -0.95900       -1.05400
H          1.51400       -0.12800       -0.14200
H          0.54700       -0.75700        1.21400
H         -0.23400        1.53800        1.72100
H          0.73400        2.16700        0.36600
H          1.54300        1.44000        1.77500
